Circuit: * C:\Users\mohammad asfraf\Downloads\Common_Source_amp.asc

Direct Newton iteration for .op point succeeded.

vgain: MAX(v(out)/v(in))=(0.993465dB,-137.91°) FROM 10 TO 100
gain_db: 20*log10(vgain)=(26.4155dB,-87.2794°)


Date: Sat Mar 01 23:28:59 2025
Total elapsed time: 0.060 seconds.

tnom = 27
temp = 27
method = trap
totiter = 15
traniter = 0
tranpoints = 0
accept = 0
rejected = 0
matrix size = 14
fillins = 4
solver = Normal
Matrix Compiler1:      47 opcodes
Matrix Compiler2: 1.07 KB object code size
