Circuit: * C:\Users\mohammad asfraf\Downloads\Common_Source_amp.asc

Direct Newton iteration for .op point succeeded.

p_mos: AVG(v(n004))=1.42984 FROM 0 TO 0.01
p_r1: AVG(v(n001,n003))=12.8573 FROM 0 TO 0.01
p_r2: AVG(v(n003))=2.14269 FROM 0 TO 0.01
p_r3: AVG(v(n001,n002))=2.85762 FROM 0 TO 0.01
p_r4: AVG(v(n004))=1.42984 FROM 0 TO 0.01
p_r5: AVG(v(out))=0.00158207 FROM 0 TO 0.01


Date: Sat Mar 01 23:28:58 2025
Total elapsed time: 0.064 seconds.

tnom = 27
temp = 27
method = modified trap
totiter = 3142
traniter = 3127
tranpoints = 1042
accept = 1042
rejected = 0
matrix size = 14
fillins = 5
solver = Normal
Matrix Compiler1: 884 bytes object code size  0.2/0.1/[0.1]
Matrix Compiler2: off  [0.1]/0.1/0.1

